****** HSPICE -- K-2015.06-2 linux64 (Jun 25 2015) ******
 Input File: sc_dc_dc_conv_tb.sp
 lic:
 lic: FLEXlm: v11.2.1
 lic: USER:   madhu028             HOSTNAME: bose.ece.umn.edu
 lic: HOSTID: "20040fea1f98"       PID:      281471
 lic: Using FLEXlm license file:
 lic: 27020@synopsys.cse.umn.edu
 lic: Checkout 1 hspice
 lic: License/Maintenance for hspice will expire on 19-dec-2020/2018.09
 lic: 1(in_use)/50(total) FLOATING license(s) on SERVER 27020@synopsys.cse.umn.edu
 lic:
 init: begin read circuit files,  cpu clock=  9.60E-01
       option search = /home/apps/common/hspice/2015.06/hspice/parts/ad
       option search = /home/apps/common/hspice/2015.06/hspice/parts/ad
       option search = /home/apps/common/hspice/2015.06/hspice/parts/be
                         have
       option search = /home/apps/common/hspice/2015.06/hspice/parts/bj
                         t
       option search = /home/apps/common/hspice/2015.06/hspice/parts/bu
                         rr_brn
       option search = /home/apps/common/hspice/2015.06/hspice/parts/co
                         mlinear
       option search = /home/apps/common/hspice/2015.06/hspice/parts/di
                         o
       option search = /home/apps/common/hspice/2015.06/hspice/parts/fe
                         t
       option search = /home/apps/common/hspice/2015.06/hspice/parts/li
                         n_tech
       option search = /home/apps/common/hspice/2015.06/hspice/parts/pc
                         i
       option search = /home/apps/common/hspice/2015.06/hspice/parts/si
                         gnet
       option search = /home/apps/common/hspice/2015.06/hspice/parts/ti
       option search = /home/apps/common/hspice/2015.06/hspice/parts/tl
                         ine
       option search = /home/apps/common/hspice/2015.06/hspice/parts/xi
                         linx
       option runlvl
       option parhier = local
       option ingold =     2.00
       option artist =     2.00
       option psf =     2.00
       option measout =     1.00
       option parhier = local
       option probe =     0.00
       option march =     2.00
       option accuracy =     1.00
       option post
 init: end read circuit files,  cpu clock=  1.45E+00 peak memory=       307 mb
 init: begin check errors,  cpu clock=  1.45E+00
 init: end check errors,  cpu clock=  1.61E+00 peak memory=       310 mb
 init: begin setup matrix, pivot=     0 cpu clock=  1.61E+00
       establish matrix -- done,  cpu clock=  1.61E+00 peak memory=       310 mb
       re-order matrix -- done,  cpu clock=  1.61E+00 peak memory=       310 mb
 init: end setup matrix,  cpu clock=  1.61E+00 peak memory=       310 mb
 dcop: begin dcop,  cpu clock=  1.62E+00
 dcop: end dcop,  cpu clock=  1.62E+00 peak memory=       310 mb  tot_iter=      20
 output: sc_dc_dc_conv_tb.mt0
 sweep: tran tran0    begin, stop_t=  5.00E-06 #sweeps=5001 cpu clock=  1.62E+00
 tran: time= 5.0000E-07 tot_iter=   42940 conv_iter=   15851 cpu clock= 3.78E+00
 tran: time= 1.0000E-06 tot_iter=   85911 conv_iter=   31686 cpu clock= 5.79E+00
 tran: time= 1.5000E-06 tot_iter=  128888 conv_iter=   47523 cpu clock= 7.83E+00
 tran: time= 2.0000E-06 tot_iter=  171843 conv_iter=   63352 cpu clock= 9.85E+00
 tran: time= 2.5000E-06 tot_iter=  214811 conv_iter=   79186 cpu clock= 1.19E+01
 tran: time= 3.0000E-06 tot_iter=  257788 conv_iter=   95023 cpu clock= 1.39E+01
 tran: time= 3.5000E-06 tot_iter=  300743 conv_iter=  110852 cpu clock= 1.59E+01
 tran: time= 4.0000E-06 tot_iter=  343711 conv_iter=  126686 cpu clock= 1.79E+01
 tran: time= 4.5000E-06 tot_iter=  386688 conv_iter=  142523 cpu clock= 1.99E+01
 tran: time= 5.0000E-06 tot_iter=  429640 conv_iter=  158351 cpu clock= 2.19E+01
 sweep: tran tran0    end,  cpu clock=  2.19E+01 peak memory=       311 mb
>info:         ***** hspice job concluded
 lic: Release hspice token(s)
