****** HSPICE -- K-2015.06-2 linux64 (Jun 25 2015) ******
 Input File: 2019_04_10_fully_differential_telescopic_OTA_single_devices_testben
 lic:
 lic: FLEXlm: v11.2.1
 lic: USER:   madhu028             HOSTNAME: bose.ece.umn.edu
 lic: HOSTID: "20040fea1f98"       PID:      252432
 lic: Using FLEXlm license file:
 lic: 27020@synopsys.cse.umn.edu
 lic: Checkout 1 hspice
 lic: License/Maintenance for hspice will expire on 19-dec-2020/2018.09
 lic: 1(in_use)/50(total) FLOATING license(s) on SERVER 27020@synopsys.cse.umn.edu
 lic:
 init: begin read circuit files,  cpu clock=  1.60E-01
       option search = /home/apps/common/hspice/2015.06/hspice/parts/ad
       option search = /home/apps/common/hspice/2015.06/hspice/parts/ad
       option search = /home/apps/common/hspice/2015.06/hspice/parts/be
                         have
       option search = /home/apps/common/hspice/2015.06/hspice/parts/bj
                         t
       option search = /home/apps/common/hspice/2015.06/hspice/parts/bu
                         rr_brn
       option search = /home/apps/common/hspice/2015.06/hspice/parts/co
                         mlinear
       option search = /home/apps/common/hspice/2015.06/hspice/parts/di
                         o
       option search = /home/apps/common/hspice/2015.06/hspice/parts/fe
                         t
       option search = /home/apps/common/hspice/2015.06/hspice/parts/li
                         n_tech
       option search = /home/apps/common/hspice/2015.06/hspice/parts/pc
                         i
       option search = /home/apps/common/hspice/2015.06/hspice/parts/si
                         gnet
       option search = /home/apps/common/hspice/2015.06/hspice/parts/ti
       option search = /home/apps/common/hspice/2015.06/hspice/parts/tl
                         ine
       option search = /home/apps/common/hspice/2015.06/hspice/parts/xi
                         linx
       option runlvl
       option ingold =     2.00
       option artist =     2.00
       option psf =     2.00
       option measout =     1.00
       option parhier = local
       option probe =     0.00
       option march =     2.00
       option accuracy =     1.00
       option post
 init: end read circuit files,  cpu clock=  1.70E-01 peak memory=       230 mb
 init: begin check errors,  cpu clock=  1.70E-01
 init: end check errors,  cpu clock=  2.00E-01 peak memory=       231 mb
 init: begin setup matrix, pivot=     0 cpu clock=  2.00E-01
       establish matrix -- done,  cpu clock=  2.00E-01 peak memory=       231 mb
       re-order matrix -- done,  cpu clock=  2.00E-01 peak memory=       231 mb
 init: end setup matrix,  cpu clock=  2.00E-01 peak memory=       231 mb
 dcop: begin dcop,  cpu clock=  2.00E-01
 dcop: end dcop,  cpu clock=  2.10E-01 peak memory=       231 mb  tot_iter=      13
 output: 2019_04_10_fully_differential_telescopic_OTA_single_devices_testbench.t
 sweep: tran tran0    begin, stop_t=  5.00E-05 #sweeps=**** cpu clock=  2.10E-01
 tran: time= 5.0000E-06 tot_iter=   21232 conv_iter=    7921 cpu clock= 2.88E+00
 tran: time= 1.0000E-05 tot_iter=   42378 conv_iter=   15804 cpu clock= 5.12E+00
 tran: time= 1.5000E-05 tot_iter=   63530 conv_iter=   23666 cpu clock= 7.36E+00
 tran: time= 2.0000E-05 tot_iter=   84542 conv_iter=   31472 cpu clock= 9.57E+00
 tran: time= 2.5000E-05 tot_iter=  105645 conv_iter=   39328 cpu clock= 1.18E+01
 tran: time= 3.0000E-05 tot_iter=  126728 conv_iter=   47170 cpu clock= 1.40E+01
 tran: time= 3.5000E-05 tot_iter=  147886 conv_iter=   55054 cpu clock= 1.63E+01
 tran: time= 4.0000E-05 tot_iter=  168952 conv_iter=   62892 cpu clock= 1.85E+01
 tran: time= 4.5000E-05 tot_iter=  190218 conv_iter=   70828 cpu clock= 2.08E+01
 tran: time= 5.0000E-05 tot_iter=  211325 conv_iter=   78692 cpu clock= 2.30E+01
 sweep: tran tran0    end,  cpu clock=  2.30E+01 peak memory=       226 mb
>info:         ***** hspice job concluded
 lic: Release hspice token(s)
