$DATA1 SOURCE='HSPICE' VERSION='K-2015.06-2 linux64'
.TITLE '** generated for: hspiced'
 avgcondv         avgcondi         pow_cond         avgphi1v        
 avgphi1i         pow_phi1         avgphi2v         avgphi2i        
 pow_phi2         avgoutv          avgouti          pow_out         
 efficiency       output_power     output_current   output_voltage  
 temper           alter#          
  1.000e+00       -3.777e-03        3.777e-03        1.030e+00      
  2.108e-07        1.716e-07        1.030e+00        2.150e-07      
  3.544e-07        8.498e-01        3.777e-03        3.210e-03      
  8.497e+01        3.210e-03        3.777e-03        8.498e-01      
  2.500e+01       1               
