****** HSPICE -- K-2015.06-2 linux64 (Jun 25 2015) ******
 Input File: sc_dc_dc_conv_1_1.sp
 lic:
 lic: FLEXlm: v11.2.1
 lic: USER:   madhu028             HOSTNAME: bose.ece.umn.edu
 lic: HOSTID: "20040fea1f98"       PID:      336937
 lic: Using FLEXlm license file:
 lic: 27020@synopsys.cse.umn.edu
 lic: Checkout 1 hspice
 lic: License/Maintenance for hspice will expire on 19-dec-2020/2018.09
 lic: 1(in_use)/50(total) FLOATING license(s) on SERVER 27020@synopsys.cse.umn.edu
 lic:
 init: begin read circuit files,  cpu clock=  9.40E-01
       option search = /home/apps/common/hspice/2015.06/hspice/parts/ad
       option search = /home/apps/common/hspice/2015.06/hspice/parts/ad
       option search = /home/apps/common/hspice/2015.06/hspice/parts/be
                         have
       option search = /home/apps/common/hspice/2015.06/hspice/parts/bj
                         t
       option search = /home/apps/common/hspice/2015.06/hspice/parts/bu
                         rr_brn
       option search = /home/apps/common/hspice/2015.06/hspice/parts/co
                         mlinear
       option search = /home/apps/common/hspice/2015.06/hspice/parts/di
                         o
       option search = /home/apps/common/hspice/2015.06/hspice/parts/fe
                         t
       option search = /home/apps/common/hspice/2015.06/hspice/parts/li
                         n_tech
       option search = /home/apps/common/hspice/2015.06/hspice/parts/pc
                         i
       option search = /home/apps/common/hspice/2015.06/hspice/parts/si
                         gnet
       option search = /home/apps/common/hspice/2015.06/hspice/parts/ti
       option search = /home/apps/common/hspice/2015.06/hspice/parts/tl
                         ine
       option search = /home/apps/common/hspice/2015.06/hspice/parts/xi
                         linx
       option runlvl
       option parhier = local
       option ingold =     2.00
       option artist =     2.00
       option psf =     2.00
       option measout =     1.00
       option parhier = local
       option probe =     0.00
       option march =     2.00
       option accuracy =     1.00
       option post
 init: end read circuit files,  cpu clock=  1.40E+00 peak memory=       301 mb
 init: begin check errors,  cpu clock=  1.40E+00
 init: end check errors,  cpu clock=  1.52E+00 peak memory=       304 mb
 init: begin setup matrix, pivot=     0 cpu clock=  1.52E+00
       establish matrix -- done,  cpu clock=  1.52E+00 peak memory=       304 mb
       re-order matrix -- done,  cpu clock=  1.52E+00 peak memory=       304 mb
 init: end setup matrix,  cpu clock=  1.52E+00 peak memory=       304 mb
 dcop: begin dcop,  cpu clock=  1.53E+00
 dcop: end dcop,  cpu clock=  1.53E+00 peak memory=       304 mb  tot_iter=       7
 output: sc_dc_dc_conv_1_1.mt0
 sweep: tran tran0    begin, stop_t=  5.00E-06 #sweeps=5001 cpu clock=  1.53E+00
 tran: time= 5.0000E-07 tot_iter=   23785 conv_iter=    9501 cpu clock= 1.99E+00
 tran: time= 1.0000E-06 tot_iter=   46939 conv_iter=   18820 cpu clock= 2.39E+00
 tran: time= 1.5000E-06 tot_iter=   71221 conv_iter=   28538 cpu clock= 2.80E+00
 tran: time= 2.0000E-06 tot_iter=   96021 conv_iter=   38438 cpu clock= 3.22E+00
 tran: time= 2.5000E-06 tot_iter=  120821 conv_iter=   48338 cpu clock= 3.65E+00
 tran: time= 3.0000E-06 tot_iter=  145621 conv_iter=   58238 cpu clock= 4.08E+00
 tran: time= 3.5000E-06 tot_iter=  170421 conv_iter=   68138 cpu clock= 4.50E+00
 tran: time= 4.0000E-06 tot_iter=  195221 conv_iter=   78038 cpu clock= 4.93E+00
 tran: time= 4.5000E-06 tot_iter=  220021 conv_iter=   87938 cpu clock= 5.35E+00
 tran: time= 5.0000E-06 tot_iter=  244799 conv_iter=   97830 cpu clock= 5.77E+00
 sweep: tran tran0    end,  cpu clock=  5.77E+00 peak memory=       305 mb
>info:         ***** hspice job concluded
 lic: Release hspice token(s)
