$DATA1 SOURCE='HSPICE' VERSION='K-2015.06-2 linux64'
.TITLE '** generated for: hspiced'
 gain             ugf              threedb          pm              
 temper           alter#          
  2.161e+01        7.973e+08        6.632e+07        9.442e+01      
  2.500e+01       1               
