****** HSPICE -- K-2015.06-2 linux64 (Jun 25 2015) ******
 Input File: 2019_10_01_5t_OTA.sp
 lic:
 lic: FLEXlm: v11.2.1
 lic: USER:   madhu028             HOSTNAME: bose.ece.umn.edu
 lic: HOSTID: "20040fea1f98"       PID:      238575
 lic: Using FLEXlm license file:
 lic: 27020@synopsys.cse.umn.edu
 lic: Checkout 1 hspice
 lic: License/Maintenance for hspice will expire on 19-dec-2020/2018.09
 lic: 1(in_use)/50(total) FLOATING license(s) on SERVER 27020@synopsys.cse.umn.edu
 lic:
 init: begin read circuit files,  cpu clock=  1.60E-01
       option search = /home/apps/common/hspice/2015.06/hspice/parts/ad
       option search = /home/apps/common/hspice/2015.06/hspice/parts/ad
       option search = /home/apps/common/hspice/2015.06/hspice/parts/be
                         have
       option search = /home/apps/common/hspice/2015.06/hspice/parts/bj
                         t
       option search = /home/apps/common/hspice/2015.06/hspice/parts/bu
                         rr_brn
       option search = /home/apps/common/hspice/2015.06/hspice/parts/co
                         mlinear
       option search = /home/apps/common/hspice/2015.06/hspice/parts/di
                         o
       option search = /home/apps/common/hspice/2015.06/hspice/parts/fe
                         t
       option search = /home/apps/common/hspice/2015.06/hspice/parts/li
                         n_tech
       option search = /home/apps/common/hspice/2015.06/hspice/parts/pc
                         i
       option search = /home/apps/common/hspice/2015.06/hspice/parts/si
                         gnet
       option search = /home/apps/common/hspice/2015.06/hspice/parts/ti
       option search = /home/apps/common/hspice/2015.06/hspice/parts/tl
                         ine
       option search = /home/apps/common/hspice/2015.06/hspice/parts/xi
                         linx
       option runlvl
       option ingold =     2.00
       option artist =     2.00
       option psf =     2.00
       option measout =     1.00
       option parhier = local
       option probe =     0.00
       option march =     2.00
       option accuracy =     1.00
       option post
 init: end read circuit files,  cpu clock=  1.60E-01 peak memory=       230 mb
 init: begin check errors,  cpu clock=  1.60E-01
 init: end check errors,  cpu clock=  1.80E-01 peak memory=       230 mb
 init: begin setup matrix, pivot=     0 cpu clock=  1.80E-01
       establish matrix -- done,  cpu clock=  1.80E-01 peak memory=       230 mb
       re-order matrix -- done,  cpu clock=  1.80E-01 peak memory=       230 mb
 init: end setup matrix,  cpu clock=  1.80E-01 peak memory=       230 mb
 output: 2019_10_01_5t_OTA.ms0
 sweep: dc dc0    begin, #sweeps=   1 cpu clock=  1.80E-01
 sweep: dc dc0    end,  cpu clock=  2.00E-01 peak memory=       230 mb
 dcop: begin dcop,  cpu clock=  2.00E-01
 dcop: end dcop,  cpu clock=  2.10E-01 peak memory=       230 mb  tot_iter=      57
 output: 2019_10_01_5t_OTA.ma0
 sweep: ac ac0    begin, #sweeps=1101 cpu clock=  2.10E-01
 ac: frequency=    1.02E+00
 ac: frequency=    1.26E+01
 ac: frequency=    1.58E+02
 ac: frequency=    2.00E+03
 ac: frequency=    2.51E+04
 ac: frequency=    3.16E+05
 ac: frequency=    3.98E+06
 ac: frequency=    5.01E+07
 ac: frequency=    6.31E+08
 ac: frequency=    7.94E+09
 ac: frequency=    1.00E+11
 sweep: ac ac0    end,  cpu clock=  2.30E-01 peak memory=       230 mb
>info:         ***** hspice job concluded
 lic: Release hspice token(s)
