$DATA1 SOURCE='HSPICE' VERSION='K-2015.06-2 linux64'
.TITLE '** generated for: hspiced'
 gain             ugf              threedb          pm              
 temper           alter#          
    failed           failed           failed           failed       
  2.500e+01       1               
